28
XYZ from PySCF
C          -3.37365        0.87330       -1.10491
C          -2.00957        0.87888       -1.17783
C          -1.16746        0.12897       -0.27337
C          -1.76110       -0.59887        0.73492
C          -3.18127       -0.63856        0.84606
C          -3.97237       -1.31694        1.76681
S          -5.58573       -0.96840        1.37432
N          -5.31961        0.00008        0.09626
C          -4.00932        0.09953       -0.08577
C           1.13181       -0.15271        0.67126
C           0.31550        0.23534       -0.37657
C           0.93579        0.66311       -1.59828
C           2.29766        0.73199       -1.73253
C           3.13811        0.36738       -0.64675
N           4.47960        0.46257       -0.82677
N           5.27948        0.14825        0.13000
C           4.78973       -0.28141        1.31884
C           3.44842       -0.42186        1.59353
C           2.54422       -0.08249        0.56557
H          -3.98746        1.45824       -1.79045
H          -1.54117        1.50687       -1.93590
H          -1.16425       -1.18518        1.43478
H          -3.68076       -1.96043        2.59640
H           0.70838       -0.47547        1.62423
H           0.31392        0.91846       -2.45627
H           2.77221        1.05150       -2.66153
H           5.55108       -0.51558        2.06604
H           3.09377       -0.77505        2.56440